# MODFLOW2005 NWT Input File
# CONVERGENCE CRITERIA READ FOR EACH STRESS PERIOD 
# FIST STRESS PERIOD HAS HIGHER ACCURACY TO ENSURE GOOD STEADY STATE ESTIMATE
# **NOTE THAT FIRST FAILED READ OF NEW STRESS PERIOD INFORMATION 
#        RESULTS IN PERMENT ASSIGNMENT OF -1 (REPEAT OF PREVIOUS SETTING)
#HEADTOL    FLUXTOL MAXITEROUT THICKFACT LINMETH IPRNWT IBOTAV OPTIONS            [DBDTHETA] [DBDKAPPA] [DBDGAMMA] [MOMFACT] [BACKFLAG] [MAXBACKITER] [BACKTOL] [BACKREDUCE]
1E-7            50.        250    0.0001       1      1      0 COMPLEX  CONTINUE     #SP 1
1E-4           500.        100    0.0001       1      1      0 COMPLEX  CONTINUE     #SP 2
-1      #SP 3  
-1      #SP 4  
-1      #SP 5  
-1      #SP 6  
-1      #SP 7  
-1      #SP 8  
-1      #SP 9  
-1      #SP 10 
-1      #SP 11 
-1      #SP 12 
-1      #SP 13 
-1      #SP 14 
-1      #SP 15 
-1      #SP 16 
-1      #SP 17 
-1      #SP 18 
-1      #SP 19 
-1      #SP 20 
-1      #SP 21 
-1      #SP 22 
-1      #SP 23 
-1      #SP 24 
-1      #SP 25 
-1      #SP 26 
-1      #SP 27 
-1      #SP 28 
-1      #SP 29 
-1      #SP 30 
-1      #SP 31 
-1      #SP 32 
-1      #SP 33 
-1      #SP 34 
-1      #SP 35 
-1      #SP 36 
-1      #SP 37 
-1      #SP 38 
-1      #SP 39 
-1      #SP 40 
-1      #SP 41 
-1      #SP 42 
-1      #SP 43 
-1      #SP 44 
-1      #SP 45 
-1      #SP 46 
-1      #SP 47 
-1      #SP 48 
-1      #SP 49 
-1      #SP 50 
-1      #SP 51 
-1      #SP 52 
-1      #SP 53 
-1      #SP 54 
-1      #SP 55 
-1      #SP 56 
-1      #SP 57 
-1      #SP 58 
-1      #SP 59 
-1      #SP 60 
-1      #SP 61 
-1      #SP 62 
-1      #SP 63 
-1      #SP 64 
-1      #SP 65 
-1      #SP 66 
-1      #SP 67 
-1      #SP 68 
-1      #SP 69 
-1      #SP 70 
-1      #SP 71 
-1      #SP 72 
-1      #SP 73 
-1      #SP 74 
-1      #SP 75 
-1      #SP 76 
-1      #SP 77 
-1      #SP 78 
-1      #SP 79 
-1      #SP 80 
-1      #SP 81 
-1      #SP 82 
-1      #SP 83 
-1      #SP 84 
-1      #SP 85 
-1      #SP 86 
-1      #SP 87 
-1      #SP 88 
-1      #SP 89 
-1      #SP 90 
-1      #SP 91 
-1      #SP 92 
-1      #SP 93 
-1      #SP 94 
-1      #SP 95 
-1      #SP 96 
-1      #SP 97 
-1      #SP 98 
-1      #SP 99 
-1      #SP 100
-1      #SP 101
-1      #SP 102
-1      #SP 103
-1      #SP 104
-1      #SP 105
-1      #SP 106
-1      #SP 107
-1      #SP 108
-1      #SP 109
-1      #SP 110
-1      #SP 111
-1      #SP 112
-1      #SP 113
-1      #SP 114
-1      #SP 115
-1      #SP 116
-1      #SP 117
-1      #SP 118
-1      #SP 119
-1      #SP 120
-1      #SP 121